Circuit: * C:\Users\alman\Desktop\ltspice_090623\ozan\ozan_v2.asc

Per .tran options, skipping operating point for transient analysis.
Heightened Def Con from 0.00482979 to 0.00482979

pin: AVG(-v(vin)*i(v1))=6.6723 FROM 0 TO 0.005

Measurement "pout" FAIL'ed

Measurement "eff" FAIL'ed


Date: Mon Jun 12 21:39:03 2023
Total elapsed time: 36.615 seconds.

tnom = 27
temp = 27
method = modified trap
totiter = 3109262
traniter = 3109262
tranpoints = 809315
accept = 547460
rejected = 261856
matrix size = 68
fillins = 50
solver = Normal
Thread vector: 5.9/4.6[2] 2.2/2.4[1] 0.6/1.1[1] 0.2/1.0[1]  2592/500
Matrix Compiler1: 5.89 KB object code size  0.9/0.6/[0.3]
Matrix Compiler2: 5.94 KB object code size  0.4/0.6/[0.3]

